91710638
  -OEChem-07192204142D

 40 40  0     1  0  0  0  0  0999 V2000
    3.7320    4.0950    0.0000 O   0  0  0  0  0  0  0  0  0  0  0  0
    2.8660   -0.4050    0.0000 C   0  0  1  0  0  0  0  0  0  0  0  0
    2.8660   -1.4050    0.0000 C   0  0  0  0  0  0  0  0  0  0  0  0
    3.7320    0.0950    0.0000 C   0  0  0  0  0  0  0  0  0  0  0  0
    3.7320   -1.9050    0.0000 C   0  0  0  0  0  0  0  0  0  0  0  0
    3.7320    1.0950    0.0000 C   0  0  0  0  0  0  0  0  0  0  0  0
    2.0000   -1.9050    0.0000 C   0  0  0  0  0  0  0  0  0  0  0  0
    2.0000    0.0950    0.0000 C   0  0  0  0  0  0  0  0  0  0  0  0
    2.0000   -2.9050    0.0000 C   0  0  0  0  0  0  0  0  0  0  0  0
    2.8660   -3.4050    0.0000 C   0  0  0  0  0  0  0  0  0  0  0  0
    3.7320   -2.9050    0.0000 C   0  0  0  0  0  0  0  0  0  0  0  0
    4.5981    1.5950    0.0000 C   0  0  0  0  0  0  0  0  0  0  0  0
    2.8660   -4.4050    0.0000 C   0  0  0  0  0  0  0  0  0  0  0  0
    4.5981    2.5950    0.0000 C   0  0  0  0  0  0  0  0  0  0  0  0
    3.7320    3.0950    0.0000 C   0  0  0  0  0  0  0  0  0  0  0  0
    5.4641    3.0950    0.0000 C   0  0  0  0  0  0  0  0  0  0  0  0
    2.8660    0.2150    0.0000 H   0  0  0  0  0  0  0  0  0  0  0  0
    3.9441   -0.4876    0.0000 H   0  0  0  0  0  0  0  0  0  0  0  0
    4.3426    0.2027    0.0000 H   0  0  0  0  0  0  0  0  0  0  0  0
    4.3426   -2.0127    0.0000 H   0  0  0  0  0  0  0  0  0  0  0  0
    3.9441   -1.3224    0.0000 H   0  0  0  0  0  0  0  0  0  0  0  0
    3.5200    1.6776    0.0000 H   0  0  0  0  0  0  0  0  0  0  0  0
    3.1215    0.9873    0.0000 H   0  0  0  0  0  0  0  0  0  0  0  0
    1.4631   -1.5950    0.0000 H   0  0  0  0  0  0  0  0  0  0  0  0
    2.3100    0.6319    0.0000 H   0  0  0  0  0  0  0  0  0  0  0  0
    1.4631    0.4050    0.0000 H   0  0  0  0  0  0  0  0  0  0  0  0
    1.6900   -0.4419    0.0000 H   0  0  0  0  0  0  0  0  0  0  0  0
    1.3894   -2.7973    0.0000 H   0  0  0  0  0  0  0  0  0  0  0  0
    1.7880   -3.4876    0.0000 H   0  0  0  0  0  0  0  0  0  0  0  0
    4.2690   -3.2150    0.0000 H   0  0  0  0  0  0  0  0  0  0  0  0
    5.1350    1.2850    0.0000 H   0  0  0  0  0  0  0  0  0  0  0  0
    2.2460   -4.4050    0.0000 H   0  0  0  0  0  0  0  0  0  0  0  0
    2.8660   -5.0250    0.0000 H   0  0  0  0  0  0  0  0  0  0  0  0
    3.4860   -4.4050    0.0000 H   0  0  0  0  0  0  0  0  0  0  0  0
    3.1215    3.2027    0.0000 H   0  0  0  0  0  0  0  0  0  0  0  0
    3.5200    2.5124    0.0000 H   0  0  0  0  0  0  0  0  0  0  0  0
    5.7741    2.5581    0.0000 H   0  0  0  0  0  0  0  0  0  0  0  0
    6.0010    3.4050    0.0000 H   0  0  0  0  0  0  0  0  0  0  0  0
    5.1541    3.6319    0.0000 H   0  0  0  0  0  0  0  0  0  0  0  0
    3.1951    4.4050    0.0000 H   0  0  0  0  0  0  0  0  0  0  0  0
  1 15  1  0  0  0  0
  1 40  1  0  0  0  0
  2  3  1  0  0  0  0
  2  4  1  0  0  0  0
  2  8  1  6  0  0  0
  2 17  1  0  0  0  0
  3  5  1  0  0  0  0
  3  7  2  0  0  0  0
  4  6  1  0  0  0  0
  4 18  1  0  0  0  0
  4 19  1  0  0  0  0
  5 11  1  0  0  0  0
  5 20  1  0  0  0  0
  5 21  1  0  0  0  0
  6 12  1  0  0  0  0
  6 22  1  0  0  0  0
  6 23  1  0  0  0  0
  7  9  1  0  0  0  0
  7 24  1  0  0  0  0
  8 25  1  0  0  0  0
  8 26  1  0  0  0  0
  8 27  1  0  0  0  0
  9 10  1  0  0  0  0
  9 28  1  0  0  0  0
  9 29  1  0  0  0  0
 10 11  2  0  0  0  0
 10 13  1  0  0  0  0
 11 30  1  0  0  0  0
 12 14  2  0  0  0  0
 12 31  1  0  0  0  0
 13 32  1  0  0  0  0
 13 33  1  0  0  0  0
 13 34  1  0  0  0  0
 14 15  1  0  0  0  0
 14 16  1  0  0  0  0
 15 35  1  0  0  0  0
 15 36  1  0  0  0  0
 16 37  1  0  0  0  0
 16 38  1  0  0  0  0
 16 39  1  0  0  0  0
M  END
> <PUBCHEM_COMPOUND_CID>
91710638

> <PUBCHEM_COMPOUND_CANONICALIZED>
1

> <PUBCHEM_CACTVS_COMPLEXITY>
307

> <PUBCHEM_CACTVS_HBOND_ACCEPTOR>
1

> <PUBCHEM_CACTVS_HBOND_DONOR>
1

> <PUBCHEM_CACTVS_ROTATABLE_BOND>
5

> <PUBCHEM_CACTVS_SUBSKEYS>
AAADceBwIAAAAAAAAAAAAAAAAAAAAAAAAAAgAAAAAAAAAAAAAAAAGgAACAAADQCggAICAAAAAgCAAiBCAAAAAAAgAAAACAAAAAgAFAIAAQAAUAAAgAAIEAMAgAAOAAAAAAAAAAAAAAAAAAAAAAAAAAAAAA==

> <PUBCHEM_IUPAC_OPENEYE_NAME>
(Z,6R)-2-methyl-6-(4-methylcyclohexa-1,4-dien-1-yl)hept-2-en-1-ol

> <PUBCHEM_IUPAC_CAS_NAME>
(Z,6R)-2-methyl-6-(4-methyl-1-cyclohexa-1,4-dienyl)-2-hepten-1-ol

> <PUBCHEM_IUPAC_NAME_MARKUP>
(<I>Z</I>,6<I>R</I>)-2-methyl-6-(4-methylcyclohexa-1,4-dien-1-yl)hept-2-en-1-ol

> <PUBCHEM_IUPAC_NAME>
(Z,6R)-2-methyl-6-(4-methylcyclohexa-1,4-dien-1-yl)hept-2-en-1-ol

> <PUBCHEM_IUPAC_SYSTEMATIC_NAME>
(Z,6R)-2-methyl-6-(4-methylcyclohexa-1,4-dien-1-yl)hept-2-en-1-ol

> <PUBCHEM_IUPAC_TRADITIONAL_NAME>
(Z,6R)-2-methyl-6-(4-methylcyclohexa-1,4-dien-1-yl)hept-2-en-1-ol

> <PUBCHEM_IUPAC_INCHI>
InChI=1S/C15H24O/c1-12-7-9-15(10-8-12)14(3)6-4-5-13(2)11-16/h5,7,10,14,16H,4,6,8-9,11H2,1-3H3/b13-5-/t14-/m1/s1

> <PUBCHEM_IUPAC_INCHIKEY>
ZHWZEHFYKZGQFR-MECSIWFOSA-N

> <PUBCHEM_XLOGP3_AA>
3.5

> <PUBCHEM_EXACT_MASS>
220.182715385

> <PUBCHEM_MOLECULAR_FORMULA>
C15H24O

> <PUBCHEM_MOLECULAR_WEIGHT>
220.35

> <PUBCHEM_OPENEYE_CAN_SMILES>
CC1=CCC(=CC1)C(C)CCC=C(C)CO

> <PUBCHEM_OPENEYE_ISO_SMILES>
CC1=CCC(=CC1)[C@H](C)CC/C=C(/C)\CO

> <PUBCHEM_CACTVS_TPSA>
20.2

> <PUBCHEM_MONOISOTOPIC_WEIGHT>
220.182715385

> <PUBCHEM_TOTAL_CHARGE>
0

> <PUBCHEM_HEAVY_ATOM_COUNT>
16

> <PUBCHEM_ATOM_DEF_STEREO_COUNT>
1

> <PUBCHEM_ATOM_UDEF_STEREO_COUNT>
0

> <PUBCHEM_BOND_DEF_STEREO_COUNT>
1

> <PUBCHEM_BOND_UDEF_STEREO_COUNT>
0

> <PUBCHEM_ISOTOPIC_ATOM_COUNT>
0

> <PUBCHEM_COMPONENT_COUNT>
1

> <PUBCHEM_CACTVS_TAUTO_COUNT>
-1

> <PUBCHEM_COORDINATE_TYPE>
1
5
255

> <PUBCHEM_BONDANNOTATIONS>
2  8  6

$$$$
