567757
  -OEChem-07182208272D

 33 34  0     1  0  0  0  0  0999 V2000
    3.2040   -1.1421    0.0000 O   0  0  0  0  0  0  0  0  0  0  0  0
    5.7890    0.7317    0.0000 C   0  0  0  0  0  0  0  0  0  0  0  0
    4.3901    0.7229    0.0000 C   0  0  3  0  0  0  0  0  0  0  0  0
    4.6489    1.6888    0.0000 C   0  0  3  0  0  0  0  0  0  0  0  0
    3.9123    2.6714    0.0000 C   0  0  0  0  0  0  0  0  0  0  0  0
    3.1691   -0.1427    0.0000 C   0  0  3  0  0  0  0  0  0  0  0  0
    2.6157    1.3777    0.0000 C   0  0  0  0  0  0  0  0  0  0  0  0
    6.2890   -0.1343    0.0000 C   0  0  0  0  0  0  0  0  0  0  0  0
    6.6550    1.2317    0.0000 C   0  0  0  0  0  0  0  0  0  0  0  0
    2.3400    0.4164    0.0000 C   0  0  0  0  0  0  0  0  0  0  0  0
    2.0000    2.1657    0.0000 C   0  0  0  0  0  0  0  0  0  0  0  0
    2.3559   -1.6721    0.0000 C   0  0  0  0  0  0  0  0  0  0  0  0
    2.3908   -2.6714    0.0000 C   0  0  0  0  0  0  0  0  0  0  0  0
    4.5801    0.1328    0.0000 H   0  0  0  0  0  0  0  0  0  0  0  0
    5.0992    2.1150    0.0000 H   0  0  0  0  0  0  0  0  0  0  0  0
    4.2301    3.2038    0.0000 H   0  0  0  0  0  0  0  0  0  0  0  0
    3.2992    2.7634    0.0000 H   0  0  0  0  0  0  0  0  0  0  0  0
    2.6268   -0.4433    0.0000 H   0  0  0  0  0  0  0  0  0  0  0  0
    5.7521   -0.4443    0.0000 H   0  0  0  0  0  0  0  0  0  0  0  0
    6.5990   -0.6712    0.0000 H   0  0  0  0  0  0  0  0  0  0  0  0
    6.8260    0.1757    0.0000 H   0  0  0  0  0  0  0  0  0  0  0  0
    6.9650    0.6948    0.0000 H   0  0  0  0  0  0  0  0  0  0  0  0
    7.1920    1.5417    0.0000 H   0  0  0  0  0  0  0  0  0  0  0  0
    6.3450    1.7687    0.0000 H   0  0  0  0  0  0  0  0  0  0  0  0
    1.7574    0.2044    0.0000 H   0  0  0  0  0  0  0  0  0  0  0  0
    2.4886    2.5474    0.0000 H   0  0  0  0  0  0  0  0  0  0  0  0
    1.6183    2.6543    0.0000 H   0  0  0  0  0  0  0  0  0  0  0  0
    1.5114    1.7840    0.0000 H   0  0  0  0  0  0  0  0  0  0  0  0
    2.1237   -1.0972    0.0000 H   0  0  0  0  0  0  0  0  0  0  0  0
    1.7495   -1.8010    0.0000 H   0  0  0  0  0  0  0  0  0  0  0  0
    1.7712   -2.6931    0.0000 H   0  0  0  0  0  0  0  0  0  0  0  0
    2.4125   -3.2911    0.0000 H   0  0  0  0  0  0  0  0  0  0  0  0
    3.0104   -2.6498    0.0000 H   0  0  0  0  0  0  0  0  0  0  0  0
  1  6  1  0  0  0  0
  1 12  1  0  0  0  0
  2  3  1  0  0  0  0
  2  4  1  0  0  0  0
  2  8  1  0  0  0  0
  2  9  1  0  0  0  0
  3  5  1  0  0  0  0
  3  6  1  0  0  0  0
  3 14  1  0  0  0  0
  4  5  1  0  0  0  0
  4  7  1  0  0  0  0
  4 15  1  0  0  0  0
  5 16  1  0  0  0  0
  5 17  1  0  0  0  0
  6 10  1  0  0  0  0
  6 18  1  0  0  0  0
  7 10  2  0  0  0  0
  7 11  1  0  0  0  0
  8 19  1  0  0  0  0
  8 20  1  0  0  0  0
  8 21  1  0  0  0  0
  9 22  1  0  0  0  0
  9 23  1  0  0  0  0
  9 24  1  0  0  0  0
 10 25  1  0  0  0  0
 11 26  1  0  0  0  0
 11 27  1  0  0  0  0
 11 28  1  0  0  0  0
 12 13  1  0  0  0  0
 12 29  1  0  0  0  0
 12 30  1  0  0  0  0
 13 31  1  0  0  0  0
 13 32  1  0  0  0  0
 13 33  1  0  0  0  0
M  END
> <PUBCHEM_COMPOUND_CID>
567757

> <PUBCHEM_COMPOUND_CANONICALIZED>
1

> <PUBCHEM_CACTVS_COMPLEXITY>
240

> <PUBCHEM_CACTVS_HBOND_ACCEPTOR>
1

> <PUBCHEM_CACTVS_HBOND_DONOR>
0

> <PUBCHEM_CACTVS_ROTATABLE_BOND>
2

> <PUBCHEM_CACTVS_SUBSKEYS>
AAADceBwIAAAAAAAAAAAAAAAAABgAAAAAAAgQAAAAAAAAAAAAAAAGgAAAAAADxSggAICAAAABACAAiBCAAAAAAAgAAAACAAAAAgABAIAIQACEAAEgAAIIAOAwFAPgAAAAAAAAAAAAAAAAAAAAAAAAAAAAA==

> <PUBCHEM_IUPAC_OPENEYE_NAME>
4-ethoxy-2,6,6-trimethyl-bicyclo[3.1.1]hept-2-ene

> <PUBCHEM_IUPAC_CAS_NAME>
4-ethoxy-2,6,6-trimethylbicyclo[3.1.1]hept-2-ene

> <PUBCHEM_IUPAC_NAME_MARKUP>
4-ethoxy-2,6,6-trimethylbicyclo[3.1.1]hept-2-ene

> <PUBCHEM_IUPAC_NAME>
4-ethoxy-2,6,6-trimethylbicyclo[3.1.1]hept-2-ene

> <PUBCHEM_IUPAC_SYSTEMATIC_NAME>
4-ethoxy-2,6,6-trimethyl-bicyclo[3.1.1]hept-2-ene

> <PUBCHEM_IUPAC_TRADITIONAL_NAME>
4-ethoxy-2,6,6-trimethyl-bicyclo[3.1.1]hept-2-ene

> <PUBCHEM_IUPAC_INCHI>
InChI=1S/C12H20O/c1-5-13-11-6-8(2)9-7-10(11)12(9,3)4/h6,9-11H,5,7H2,1-4H3

> <PUBCHEM_IUPAC_INCHIKEY>
LQQWUEVOGQWTBB-UHFFFAOYSA-N

> <PUBCHEM_XLOGP3_AA>
2.5

> <PUBCHEM_EXACT_MASS>
180.151415257

> <PUBCHEM_MOLECULAR_FORMULA>
C12H20O

> <PUBCHEM_MOLECULAR_WEIGHT>
180.29

> <PUBCHEM_OPENEYE_CAN_SMILES>
CCOC1C=C(C2CC1C2(C)C)C

> <PUBCHEM_OPENEYE_ISO_SMILES>
CCOC1C=C(C2CC1C2(C)C)C

> <PUBCHEM_CACTVS_TPSA>
9.2

> <PUBCHEM_MONOISOTOPIC_WEIGHT>
180.151415257

> <PUBCHEM_TOTAL_CHARGE>
0

> <PUBCHEM_HEAVY_ATOM_COUNT>
13

> <PUBCHEM_ATOM_DEF_STEREO_COUNT>
0

> <PUBCHEM_ATOM_UDEF_STEREO_COUNT>
3

> <PUBCHEM_BOND_DEF_STEREO_COUNT>
0

> <PUBCHEM_BOND_UDEF_STEREO_COUNT>
0

> <PUBCHEM_ISOTOPIC_ATOM_COUNT>
0

> <PUBCHEM_COMPONENT_COUNT>
1

> <PUBCHEM_CACTVS_TAUTO_COUNT>
-1

> <PUBCHEM_COORDINATE_TYPE>
1
5
255

> <PUBCHEM_BONDANNOTATIONS>
6  1  3
3  5  3
4  5  3

$$$$
