5365847
  -OEChem-07182208362D

 35 34  0     0  0  0  0  0  0999 V2000
    3.7320    0.4400    0.0000 O   0  0  0  0  0  0  0  0  0  0  0  0
    7.1962    0.4400    0.0000 C   0  0  0  0  0  0  0  0  0  0  0  0
    8.0622   -0.0600    0.0000 C   0  0  0  0  0  0  0  0  0  0  0  0
    6.3301   -0.0600    0.0000 C   0  0  0  0  0  0  0  0  0  0  0  0
    8.9282    0.4400    0.0000 C   0  0  0  0  0  0  0  0  0  0  0  0
    5.4641    0.4400    0.0000 C   0  0  0  0  0  0  0  0  0  0  0  0
    6.3301   -1.0600    0.0000 C   0  0  0  0  0  0  0  0  0  0  0  0
    9.7942   -0.0600    0.0000 C   0  0  0  0  0  0  0  0  0  0  0  0
    4.5981   -0.0600    0.0000 C   0  0  0  0  0  0  0  0  0  0  0  0
   10.6603    0.4400    0.0000 C   0  0  0  0  0  0  0  0  0  0  0  0
    9.7942   -1.0600    0.0000 C   0  0  0  0  0  0  0  0  0  0  0  0
    2.8660   -0.0600    0.0000 C   0  0  0  0  0  0  0  0  0  0  0  0
    2.0000    0.4400    0.0000 C   0  0  0  0  0  0  0  0  0  0  0  0
    7.5947    0.9149    0.0000 H   0  0  0  0  0  0  0  0  0  0  0  0
    6.7976    0.9149    0.0000 H   0  0  0  0  0  0  0  0  0  0  0  0
    7.6636   -0.5349    0.0000 H   0  0  0  0  0  0  0  0  0  0  0  0
    8.4607   -0.5349    0.0000 H   0  0  0  0  0  0  0  0  0  0  0  0
    8.9282    1.0600    0.0000 H   0  0  0  0  0  0  0  0  0  0  0  0
    5.4641    1.0600    0.0000 H   0  0  0  0  0  0  0  0  0  0  0  0
    5.7101   -1.0600    0.0000 H   0  0  0  0  0  0  0  0  0  0  0  0
    6.3301   -1.6800    0.0000 H   0  0  0  0  0  0  0  0  0  0  0  0
    6.9501   -1.0600    0.0000 H   0  0  0  0  0  0  0  0  0  0  0  0
    4.1996   -0.5349    0.0000 H   0  0  0  0  0  0  0  0  0  0  0  0
    4.9966   -0.5349    0.0000 H   0  0  0  0  0  0  0  0  0  0  0  0
   10.9703   -0.0969    0.0000 H   0  0  0  0  0  0  0  0  0  0  0  0
   11.1972    0.7500    0.0000 H   0  0  0  0  0  0  0  0  0  0  0  0
   10.3503    0.9769    0.0000 H   0  0  0  0  0  0  0  0  0  0  0  0
    9.1742   -1.0600    0.0000 H   0  0  0  0  0  0  0  0  0  0  0  0
    9.7942   -1.6800    0.0000 H   0  0  0  0  0  0  0  0  0  0  0  0
   10.4142   -1.0600    0.0000 H   0  0  0  0  0  0  0  0  0  0  0  0
    2.4675   -0.5349    0.0000 H   0  0  0  0  0  0  0  0  0  0  0  0
    3.2646   -0.5349    0.0000 H   0  0  0  0  0  0  0  0  0  0  0  0
    2.3100    0.9769    0.0000 H   0  0  0  0  0  0  0  0  0  0  0  0
    1.4631    0.7500    0.0000 H   0  0  0  0  0  0  0  0  0  0  0  0
    1.6900   -0.0969    0.0000 H   0  0  0  0  0  0  0  0  0  0  0  0
  1  9  1  0  0  0  0
  1 12  1  0  0  0  0
  2  3  1  0  0  0  0
  2  4  1  0  0  0  0
  2 14  1  0  0  0  0
  2 15  1  0  0  0  0
  3  5  1  0  0  0  0
  3 16  1  0  0  0  0
  3 17  1  0  0  0  0
  4  6  2  0  0  0  0
  4  7  1  0  0  0  0
  5  8  2  0  0  0  0
  5 18  1  0  0  0  0
  6  9  1  0  0  0  0
  6 19  1  0  0  0  0
  7 20  1  0  0  0  0
  7 21  1  0  0  0  0
  7 22  1  0  0  0  0
  8 10  1  0  0  0  0
  8 11  1  0  0  0  0
  9 23  1  0  0  0  0
  9 24  1  0  0  0  0
 10 25  1  0  0  0  0
 10 26  1  0  0  0  0
 10 27  1  0  0  0  0
 11 28  1  0  0  0  0
 11 29  1  0  0  0  0
 11 30  1  0  0  0  0
 12 13  1  0  0  0  0
 12 31  1  0  0  0  0
 12 32  1  0  0  0  0
 13 33  1  0  0  0  0
 13 34  1  0  0  0  0
 13 35  1  0  0  0  0
M  END
> <PUBCHEM_COMPOUND_CID>
5365847

> <PUBCHEM_COMPOUND_CANONICALIZED>
1

> <PUBCHEM_CACTVS_COMPLEXITY>
174

> <PUBCHEM_CACTVS_HBOND_ACCEPTOR>
1

> <PUBCHEM_CACTVS_HBOND_DONOR>
0

> <PUBCHEM_CACTVS_ROTATABLE_BOND>
6

> <PUBCHEM_CACTVS_SUBSKEYS>
AAADceBwIAAAAAAAAAAAAAAAAAAAAAAAAAAAAAAAAAAAAAAAAAAAGgAAAAAADACggAICAAAABACAAiBCAAAAAAAgAAAACAAAAAgABAIAIQACEAAAgAAIIAIAAAAAAAAAAAAAAAAAAAAAAAAAAAAAAAAAAA==

> <PUBCHEM_IUPAC_OPENEYE_NAME>
(2E)-1-ethoxy-3,7-dimethyl-octa-2,6-diene

> <PUBCHEM_IUPAC_CAS_NAME>
(2E)-1-ethoxy-3,7-dimethylocta-2,6-diene

> <PUBCHEM_IUPAC_NAME_MARKUP>
(2<I>E</I>)-1-ethoxy-3,7-dimethylocta-2,6-diene

> <PUBCHEM_IUPAC_NAME>
(2E)-1-ethoxy-3,7-dimethylocta-2,6-diene

> <PUBCHEM_IUPAC_SYSTEMATIC_NAME>
(2E)-1-ethoxy-3,7-dimethyl-octa-2,6-diene

> <PUBCHEM_IUPAC_TRADITIONAL_NAME>
(2E)-1-ethoxy-3,7-dimethyl-octa-2,6-diene

> <PUBCHEM_IUPAC_INCHI>
InChI=1S/C12H22O/c1-5-13-10-9-12(4)8-6-7-11(2)3/h7,9H,5-6,8,10H2,1-4H3/b12-9+

> <PUBCHEM_IUPAC_INCHIKEY>
LOUIMJFJROISMD-FMIVXFBMSA-N

> <PUBCHEM_XLOGP3_AA>
3.8

> <PUBCHEM_EXACT_MASS>
182.167065321

> <PUBCHEM_MOLECULAR_FORMULA>
C12H22O

> <PUBCHEM_MOLECULAR_WEIGHT>
182.30

> <PUBCHEM_OPENEYE_CAN_SMILES>
CCOCC=C(C)CCC=C(C)C

> <PUBCHEM_OPENEYE_ISO_SMILES>
CCOC/C=C(\C)/CCC=C(C)C

> <PUBCHEM_CACTVS_TPSA>
9.2

> <PUBCHEM_MONOISOTOPIC_WEIGHT>
182.167065321

> <PUBCHEM_TOTAL_CHARGE>
0

> <PUBCHEM_HEAVY_ATOM_COUNT>
13

> <PUBCHEM_ATOM_DEF_STEREO_COUNT>
0

> <PUBCHEM_ATOM_UDEF_STEREO_COUNT>
0

> <PUBCHEM_BOND_DEF_STEREO_COUNT>
1

> <PUBCHEM_BOND_UDEF_STEREO_COUNT>
0

> <PUBCHEM_ISOTOPIC_ATOM_COUNT>
0

> <PUBCHEM_COMPONENT_COUNT>
1

> <PUBCHEM_CACTVS_TAUTO_COUNT>
1

> <PUBCHEM_COORDINATE_TYPE>
1
5
255

$$$$
