101412242
  -OEChem-07192203272D

 40 42  0     1  0  0  0  0  0999 V2000
    4.4741   -2.2305    0.0000 O   0  0  0  0  0  0  0  0  0  0  0  0
    2.9986   -0.0510    0.0000 C   0  0  3  0  0  0  0  0  0  0  0  0
    5.8153    0.0342    0.0000 C   0  0  2  0  0  0  0  0  0  0  0  0
    4.6752    0.9913    0.0000 C   0  0  1  0  0  0  0  0  0  0  0  0
    4.4164    0.0254    0.0000 C   0  0  1  0  0  0  0  0  0  0  0  0
    5.3659   -0.8545    0.0000 C   0  0  2  0  0  0  0  0  0  0  0  0
    3.5009   -0.9109    0.0000 C   0  0  0  0  0  0  0  0  0  0  0  0
    4.4439   -1.2310    0.0000 C   0  0  1  0  0  0  0  0  0  0  0  0
    4.5967    2.4521    0.0000 C   0  0  0  0  0  0  0  0  0  0  0  0
    3.1954    1.6431    0.0000 C   0  0  0  0  0  0  0  0  0  0  0  0
    2.0000   -0.1047    0.0000 C   0  0  0  0  0  0  0  0  0  0  0  0
    3.6022    2.5566    0.0000 C   0  0  0  0  0  0  0  0  0  0  0  0
    6.0440   -1.5895    0.0000 C   0  0  0  0  0  0  0  0  0  0  0  0
    2.2173    1.4352    0.0000 C   0  0  0  0  0  0  0  0  0  0  0  0
    5.7465   -2.5442    0.0000 C   0  0  0  0  0  0  0  0  0  0  0  0
    7.0195   -1.3698    0.0000 C   0  0  0  0  0  0  0  0  0  0  0  0
    6.6480    0.2048    0.0000 H   0  0  0  0  0  0  0  0  0  0  0  0
    4.8952    1.8124    0.0000 H   0  0  0  0  0  0  0  0  0  0  0  0
    4.1964   -0.7956    0.0000 H   0  0  0  0  0  0  0  0  0  0  0  0
    5.9800   -0.7689    0.0000 H   0  0  0  0  0  0  0  0  0  0  0  0
    2.8991   -1.0603    0.0000 H   0  0  0  0  0  0  0  0  0  0  0  0
    3.4749   -1.5303    0.0000 H   0  0  0  0  0  0  0  0  0  0  0  0
    4.9637   -1.5689    0.0000 H   0  0  0  0  0  0  0  0  0  0  0  0
    5.2167    2.4526    0.0000 H   0  0  0  0  0  0  0  0  0  0  0  0
    4.6289    3.0712    0.0000 H   0  0  0  0  0  0  0  0  0  0  0  0
    1.9667    0.5144    0.0000 H   0  0  0  0  0  0  0  0  0  0  0  0
    1.3809   -0.1381    0.0000 H   0  0  0  0  0  0  0  0  0  0  0  0
    2.0333   -0.7238    0.0000 H   0  0  0  0  0  0  0  0  0  0  0  0
    3.7311    3.1631    0.0000 H   0  0  0  0  0  0  0  0  0  0  0  0
    3.0125    2.7482    0.0000 H   0  0  0  0  0  0  0  0  0  0  0  0
    5.4391   -1.7257    0.0000 H   0  0  0  0  0  0  0  0  0  0  0  0
    1.8024    1.8959    0.0000 H   0  0  0  0  0  0  0  0  0  0  0  0
    2.0257    0.8455    0.0000 H   0  0  0  0  0  0  0  0  0  0  0  0
    3.9468   -2.5566    0.0000 H   0  0  0  0  0  0  0  0  0  0  0  0
    5.1545   -2.3598    0.0000 H   0  0  0  0  0  0  0  0  0  0  0  0
    5.5620   -3.1361    0.0000 H   0  0  0  0  0  0  0  0  0  0  0  0
    6.3384   -2.7287    0.0000 H   0  0  0  0  0  0  0  0  0  0  0  0
    7.1557   -1.9746    0.0000 H   0  0  0  0  0  0  0  0  0  0  0  0
    7.6244   -1.2335    0.0000 H   0  0  0  0  0  0  0  0  0  0  0  0
    6.8833   -0.7649    0.0000 H   0  0  0  0  0  0  0  0  0  0  0  0
  8  1  1  6  0  0  0
  1 34  1  0  0  0  0
  2  4  1  0  0  0  0
  2  5  1  0  0  0  0
  2  7  1  0  0  0  0
  2 11  1  0  0  0  0
  3  4  1  0  0  0  0
  3  5  1  0  0  0  0
  3  6  1  0  0  0  0
  3 17  1  6  0  0  0
  4  9  1  0  0  0  0
  4 18  1  1  0  0  0
  5 10  1  0  0  0  0
  5 19  1  1  0  0  0
  6  8  1  0  0  0  0
  6 13  1  1  0  0  0
  6 20  1  0  0  0  0
  7  8  1  0  0  0  0
  7 21  1  0  0  0  0
  7 22  1  0  0  0  0
  8 23  1  0  0  0  0
  9 12  1  0  0  0  0
  9 24  1  0  0  0  0
  9 25  1  0  0  0  0
 10 12  1  0  0  0  0
 10 14  2  0  0  0  0
 11 26  1  0  0  0  0
 11 27  1  0  0  0  0
 11 28  1  0  0  0  0
 12 29  1  0  0  0  0
 12 30  1  0  0  0  0
 13 15  1  0  0  0  0
 13 16  1  0  0  0  0
 13 31  1  0  0  0  0
 14 32  1  0  0  0  0
 14 33  1  0  0  0  0
 15 35  1  0  0  0  0
 15 36  1  0  0  0  0
 15 37  1  0  0  0  0
 16 38  1  0  0  0  0
 16 39  1  0  0  0  0
 16 40  1  0  0  0  0
M  END
> <PUBCHEM_COMPOUND_CID>
101412242

> <PUBCHEM_COMPOUND_CANONICALIZED>
1

> <PUBCHEM_CACTVS_COMPLEXITY>
332

> <PUBCHEM_CACTVS_HBOND_ACCEPTOR>
1

> <PUBCHEM_CACTVS_HBOND_DONOR>
1

> <PUBCHEM_CACTVS_ROTATABLE_BOND>
1

> <PUBCHEM_CACTVS_SUBSKEYS>
AAADceBwIAAAAAAAAAAAAAAAAABgAAAAAAAwYMGAAAAAAAAAAAAAGgAACAAADxSggAICAAAAAgCAAgBCAAAAAAAgAAAAAAAAAAgAEAIAAQAAQAAEgAAAAAGAwPAPgAAAAAAAAADAAAYAADAAAAAAAAAAAA==

> <PUBCHEM_IUPAC_OPENEYE_NAME>
(1R,4R,5R,6R,7S)-5-isopropyl-2-methyl-8-methylene-tricyclo[4.4.0.02,7]decan-4-ol

> <PUBCHEM_IUPAC_CAS_NAME>
(1R,4R,5R,6R,7S)-2-methyl-8-methylene-5-propan-2-yl-4-tricyclo[4.4.0.02,7]decanol

> <PUBCHEM_IUPAC_NAME_MARKUP>
(1<I>R</I>,4<I>R</I>,5<I>R</I>,6<I>R</I>,7<I>S</I>)-2-methyl-8-methylidene-5-propan-2-yltricyclo[4.4.0.0<SUP>2,7</SUP>]decan-4-ol

> <PUBCHEM_IUPAC_NAME>
(1R,4R,5R,6R,7S)-2-methyl-8-methylidene-5-propan-2-yltricyclo[4.4.0.02,7]decan-4-ol

> <PUBCHEM_IUPAC_SYSTEMATIC_NAME>
(1R,4R,5R,6R,7S)-2-methyl-8-methylidene-5-propan-2-yl-tricyclo[4.4.0.02,7]decan-4-ol

> <PUBCHEM_IUPAC_TRADITIONAL_NAME>
(1R,4R,5R,6R,7S)-5-isopropyl-2-methyl-8-methylene-tricyclo[4.4.0.02,7]decan-4-ol

> <PUBCHEM_IUPAC_INCHI>
InChI=1S/C15H24O/c1-8(2)12-11(16)7-15(4)10-6-5-9(3)14(15)13(10)12/h8,10-14,16H,3,5-7H2,1-2,4H3/t10-,11-,12+,13+,14-,15?/m1/s1

> <PUBCHEM_IUPAC_INCHIKEY>
ORAACLXPCXANOZ-LOGRNBMNSA-N

> <PUBCHEM_XLOGP3_AA>
3.4

> <PUBCHEM_EXACT_MASS>
220.182715385

> <PUBCHEM_MOLECULAR_FORMULA>
C15H24O

> <PUBCHEM_MOLECULAR_WEIGHT>
220.35

> <PUBCHEM_OPENEYE_CAN_SMILES>
CC(C)C1C(CC2(C3C1C2C(=C)CC3)C)O

> <PUBCHEM_OPENEYE_ISO_SMILES>
CC(C)[C@H]1[C@@H](CC2([C@H]3[C@@H]1[C@H]2C(=C)CC3)C)O

> <PUBCHEM_CACTVS_TPSA>
20.2

> <PUBCHEM_MONOISOTOPIC_WEIGHT>
220.182715385

> <PUBCHEM_TOTAL_CHARGE>
0

> <PUBCHEM_HEAVY_ATOM_COUNT>
16

> <PUBCHEM_ATOM_DEF_STEREO_COUNT>
5

> <PUBCHEM_ATOM_UDEF_STEREO_COUNT>
1

> <PUBCHEM_BOND_DEF_STEREO_COUNT>
0

> <PUBCHEM_BOND_UDEF_STEREO_COUNT>
0

> <PUBCHEM_ISOTOPIC_ATOM_COUNT>
0

> <PUBCHEM_COMPONENT_COUNT>
1

> <PUBCHEM_CACTVS_TAUTO_COUNT>
-1

> <PUBCHEM_COORDINATE_TYPE>
1
5
255

> <PUBCHEM_BONDANNOTATIONS>
8  1  6
2  11  3
3  17  6
4  18  5
5  19  5
6  13  5

$$$$
